**********************
* Autodesk EAGLE - SPICE Model File
**************************************
*      Model Generated by MODPEX     *
*Copyright(c) Symmetry Design Systems*
*         All Rights Reserved        *
*    UNPUBLISHED LICENSED SOFTWARE   *
*   Contains Proprietary Information *
*      Which is The Property of      *
*     SYMMETRY OR ITS LICENSORS      *
*    Modeling services provided by   *
* Interface Technologies www.i-t.com *
**************************************
*.SUBCKT MBR0540 1 2
*D1 1 2 Dmbr0540
.MODEL Dmbr0540 d
+IS=1e-15 RS=0.126117 N=0.5 EG=0.6
+XTI=2.96952 BV=40 IBV=1e-05 CJO=1.215e-10
+VJ=0.532776 M=0.445417 FC=0.5 TT=0
+KF=0 AF=1
*.ENDS MBR0540