**********************
* Autodesk EAGLE - SPICE Model File
* Author:
* Date: 
**********************
.SUBCKT TerminalOut 1 2
Rname 1 2 1000000
.ENDS 