**********************
* Autodesk EAGLE - SPICE Model File
* Author:
* Date: 
**********************
.SUBCKT VoltageSource 1 2
Vin 1 2 DC 5
.ENDS VoltageSource